Version 4
SHEET 1 2072 724
WIRE -480 -1120 -480 -1152
WIRE -496 -672 -496 -736
WIRE -496 -384 -496 -400
WIRE -496 -256 -496 -304
WIRE 544 -112 160 -112
WIRE 1392 -112 1248 -112
WIRE 912 -96 816 -96
WIRE 544 -80 464 -80
WIRE 816 -64 816 -96
WIRE 816 -64 672 -64
WIRE 1248 -64 1248 -112
WIRE 1248 -64 1040 -64
WIRE 1840 -64 1728 -64
WIRE 2016 -32 1968 -32
WIRE 160 0 160 -112
WIRE 1728 0 1728 -64
WIRE 1728 0 1520 0
WIRE 48 16 -80 16
WIRE 112 16 48 16
WIRE 112 64 80 64
WIRE 160 112 160 80
WIRE 320 112 160 112
WIRE -80 144 -80 16
WIRE 160 160 160 112
WIRE 48 176 48 16
WIRE 112 176 48 176
WIRE 80 224 80 64
WIRE 112 224 80 224
WIRE 80 256 80 224
WIRE 160 272 160 240
WIRE 464 272 464 -80
WIRE 464 272 160 272
WIRE -480 288 -480 224
WIRE -80 304 -80 224
WIRE -480 704 -480 608
FLAG -80 304 0
FLAG 80 256 0
FLAG 320 192 0
FLAG -480 -1120 0
FLAG -480 288 0
FLAG -480 704 0
FLAG -496 -672 0
FLAG -480 -1232 s1
FLAG -496 -816 s2
FLAG -496 -400 s3
FLAG -480 144 s4
FLAG -480 528 s5
FLAG -496 -256 0
FLAG 2016 -32 out
FLAG 1392 -80 s1
FLAG 1392 -48 s2
FLAG 1392 -16 s3
FLAG 1392 16 s4
FLAG 1392 48 s5
FLAG -48 624 0
FLAG -192 624 0
FLAG -192 544 vdd
FLAG -48 544 vss
FLAG 544 -48 vdd
FLAG 912 -64 vdd
FLAG 1392 80 vdd
FLAG 544 -16 vss
FLAG 912 -32 vss
FLAG 1392 112 vss
FLAG 1840 -32 vdd
FLAG 1840 0 vss
SYMBOL voltage -80 128 R0
WINDOW 123 38 63 Left 2
WINDOW 39 0 0 Left 2
WINDOW 0 38 12 Left 2
WINDOW 3 -188 38 Left 2
SYMATTR Value2 AC 1
SYMATTR InstName Vin1
SYMATTR Value ""
SYMBOL e 160 -16 R0
SYMATTR InstName E1
SYMATTR Value -0.5
SYMBOL e 160 144 R0
SYMATTR InstName E2
SYMATTR Value -0.5
SYMBOL voltage 320 96 R0
WINDOW 123 38 63 Left 2
WINDOW 39 0 0 Left 2
WINDOW 0 38 12 Left 2
WINDOW 3 -188 38 Left 2
SYMATTR Value2 AC 0
SYMATTR InstName Vicm1
SYMATTR Value ""
SYMBOL voltage -480 -1248 R0
WINDOW 123 0 0 Left 0
WINDOW 39 0 0 Left 0
SYMATTR InstName V1
SYMATTR Value -15
SYMBOL voltage -496 -400 R0
WINDOW 123 0 0 Left 0
WINDOW 39 0 0 Left 0
SYMATTR InstName V2
SYMATTR Value -15
SYMBOL voltage -496 -832 R0
WINDOW 123 0 0 Left 0
WINDOW 39 0 0 Left 0
SYMATTR InstName V3
SYMATTR Value -15
SYMBOL voltage -480 128 R0
WINDOW 123 0 0 Left 0
WINDOW 39 0 0 Left 0
SYMATTR InstName V4
SYMATTR Value -15
SYMBOL voltage -480 512 R0
WINDOW 123 0 0 Left 0
WINDOW 39 0 0 Left 0
SYMATTR InstName V5
SYMATTR Value 15
SYMBOL etj1 608 -64 R0
SYMATTR InstName X1
SYMBOL etj2 976 -64 R0
SYMATTR InstName X2
SYMBOL etj3 1456 0 R0
SYMATTR InstName X3
SYMBOL etj4 1904 -32 R0
SYMATTR InstName X4
SYMBOL voltage -192 528 R0
WINDOW 123 0 0 Left 0
WINDOW 39 0 0 Left 0
SYMATTR InstName V6
SYMATTR Value 15
SYMBOL voltage -48 528 R0
SYMATTR InstName V7
SYMATTR Value -15
TEXT -128 -256 Left 2 !.dc Vin1 -15 15 0.01
